grid_TF_Wind/data/TYTFS2024_studyfiles/TYTFS2024_SV2024_V33.raw
0,   100.00, 33, 1, 1, 50.00     / PSS(R)E 33 RAW created by rawd33  TUE, SEP 30 2025  15:18
/ CASE: 2024;  SUMMER 01/07/2024; FORECAST STATEMENT 2023 -
/ NEXT PLANET;  14:53:07  TUESDAY, SEPTEMBER 30, 2025 RATE 2
    10,'F_M         ',  38.0000,1,  11,  11,   1,1.02950,  -7.9125,1.10000,0.90000,1.10000,0.90000
    11,'FMN LOOP    ',  38.0000,1,  11,  11,   1,1.02999,  -7.7188,1.10000,0.90000,1.10000,0.90000
    12,'BEDFORD ROW ',  38.0000,1,  11,  11,   1,1.03904,  -7.5058,1.10000,0.90000,1.10000,0.90000
    13,'M_R         ',  38.0000,1,  11,  11,   1,1.03044,  -8.2135,1.10000,0.90000,1.10000,0.90000
    14,'F_I         ',  38.0000,1,  11,  11,   1,1.02458,  -7.5019,1.10000,0.90000,1.10000,0.90000
    15,'I_M         ',  38.0000,1,  11,  11,   1,1.02534,  -7.3290,1.10000,0.90000,1.10000,0.90000
  1021,'ARDNACRUSHA ', 110.0000,1,   4,   4,   1,1.03004,   4.1586,1.10000,0.90000,1.10000,0.90000
  1041,'AGHADA      ', 110.0000,1,  10,  10,   2,1.01103,  14.6099,1.10000,0.90000,1.10000,0.90000
  1042,'AGHADA      ', 220.0000,1,  10,  10,   2,1.00000,  18.0256,1.10000,0.90000,1.10000,0.90000
  1052,'AGHADA_B    ', 220.0000,1,  10,  10,   2,1.00000,  18.0256,1.10000,0.90000,1.10000,0.90000
  1061,'ARIGNA      ', 110.0000,1,   1,   1,   3,1.05564,  -4.4871,1.10000,0.90000,1.10000,0.90000
  1062,'AGH_AT14    ', 220.0000,1,  10,  10,   9,1.00000,  18.0256,1.10000,0.90000,1.10000,0.90000
  1071,'AGANNYGAL   ', 110.0000,1,   4,   4,   3,1.04139,   1.5195,1.10000,0.90000,1.10000,0.90000
  1072,'AGHT2102    ', 220.0000,1,  10,  10,   2,1.00001,  18.0084,1.10000,0.90000,1.10000,0.90000
  1081,'AHANE       ', 110.0000,1,   8,   8,   2,1.02865,   5.0071,1.10000,0.90000,1.10000,0.90000
  1091,'ADAMSTOWN   ', 110.0000,1,  11,  11,   1,1.02051,  -6.9464,1.10000,0.90000,1.10000,0.90000
  1101,'ANNER       ', 110.0000,1,   8,   8,   6,1.00020,   4.8374,1.10000,0.90000,1.10000,0.90000
  1121,'ARKLOW      ', 110.0000,1,   9,   9,   3,1.01992,  -0.9849,1.10000,0.90000,1.10000,0.90000
  1122,'ARKLOW      ', 220.0000,1,   9,   9,   3,1.00706,   0.1655,1.10000,0.90000,1.10000,0.90000
  1131,'ATHEA       ', 110.0000,1,   5,   5,  17,1.04786,   7.9060,1.10000,0.90000,1.10000,0.90000
  1141,'ATHLONE     ', 110.0000,1,   3,   3,   3,1.04333,  -2.1100,1.10000,0.90000,1.10000,0.90000
  1161,'AUGHINISH   ', 110.0000,1,   5,   5,   2,1.00786,   3.8689,1.10000,0.90000,1.10000,0.90000
  1181,'ARVA        ', 110.0000,1,   7,   7,   3,1.05468,  -7.1140,1.10000,0.90000,1.10000,0.90000
  1201,'ARTANE      ', 110.0000,1,  11,  11,   1,1.02572,  -6.0583,1.10000,0.90000,1.10000,0.90000
  1211,'BALLYVOUSKIL', 110.0000,1,   5,   5,   3,1.06908,  10.7050,1.10000,0.90000,1.10000,0.90000
  1212,'BALLYVOUSKIL', 220.0000,1,   5,   5,   3,1.04834,  10.7234,1.10000,0.90000,1.10000,0.90000
  1221,'ATHY        ', 110.0000,1,  11,  11,   3,1.03319,  -1.9603,1.10000,0.90000,1.10000,0.90000
  1231,'BALLYWATER  ', 110.0000,1,   9,   9,  17,1.02154,   2.1261,1.10000,0.90000,1.10000,0.90000
  1251,'BOOLTIAGH   ', 110.0000,1,   4,   4,  17,1.04486,   4.6069,1.10000,0.90000,1.10000,0.90000
  1271,'BALTRASNA   ', 110.0000,1,   7,   7,   2,1.02149,  -7.5787,1.10000,0.90000,1.10000,0.90000
  1281,'BALLYLICKEY ', 110.0000,1,   6,   6,   3,1.02953,  10.5924,1.10000,0.90000,1.10000,0.90000
  1301,'BALLYBEG    ', 110.0000,1,   9,   9,   2,1.01594,  -2.3936,1.10000,0.90000,1.10000,0.90000
  1311,'CORDAL      ', 110.0000,1,   5,   5,  17,1.07543,   9.8550,1.10000,0.90000,1.10000,0.90000
  1321,'BLAKE       ', 110.0000,1,  11,  11,   2,1.02503,  -6.0149,1.10000,0.90000,1.10000,0.90000
  1331,'BLUNDELSTOWN', 110.0000,1,  11,  11,  23,1.02594,  -7.3061,1.10000,0.90000,1.10000,0.90000
  1341,'BINBANE     ', 110.0000,1,   1,   1,   3,1.08137,  -9.7822,1.10000,0.90000,1.10000,0.90000
  1351,'BARODA      ', 110.0000,1,  11,  11,   6,1.02769,  -5.8071,1.10000,0.90000,1.10000,0.90000
  1361,'BALLYDINE   ', 110.0000,1,   8,   8,   3,1.00120,   5.3363,1.10000,0.90000,1.10000,0.90000
  1371,'BARNAGEERAGH', 110.0000,1,  11,  11,   7,1.01419,  -7.6258,1.10000,0.90000,1.10000,0.90000
  1381,'BARNAHELY   ', 110.0000,1,  10,  10,   2,1.01150,  13.9321,1.10000,0.90000,1.10000,0.90000
  1401,'BELLACORICK ', 110.0000,1,   2,   2,   3,1.07272,   1.7699,1.10000,0.90000,1.10000,0.90000
  1411,'AIRTON      ', 110.0000,1,  11,  11,   7,1.02229,  -6.2252,1.10000,0.90000,1.10000,0.90000
  1421,'BLACKROCK   ', 110.0000,1,  11,  11,   1,1.03275,  -6.2768,1.10000,0.90000,1.10000,0.90000
  1431,'BALLYRAGGET ', 110.0000,1,   9,   9,   3,1.02286,   1.6263,1.10000,0.90000,1.10000,0.90000
  1441,'BANDON      ', 110.0000,1,   6,   6,   2,1.01534,  11.9079,1.10000,0.90000,1.10000,0.90000
  1451,'CLOGHRAN    ', 110.0000,1,  11,  11,   7,1.01423,  -7.6176,1.10000,0.90000,1.10000,0.90000
  1461,'BARRYMORE   ', 110.0000,1,   8,   8,   2,1.01030,  10.0748,1.10000,0.90000,1.10000,0.90000
  1471,'BELCAMP     ', 110.0000,1,  11,  11,   7,1.00212,  -9.2019,1.10000,0.90000,1.10000,0.90000
  1472,'BELCAMP     ', 220.0000,1,  11,  11,   7,1.01707,  -4.9342,1.10000,0.90000,1.10000,0.90000
  1481,'BUTLERSTOWN ', 110.0000,1,  12,  12,   3,1.00945,   6.0850,1.10000,0.90000,1.10000,0.90000
  1491,'DEENES      ', 110.0000,1,   7,   7,   1,1.02531,  -7.5342,1.10000,0.90000,1.10000,0.90000
  1501,'BRINNY      ', 110.0000,1,   6,   6,   6,1.01522,  11.8991,1.10000,0.90000,1.10000,0.90000
  1511,'CLOGHBOOLA  ', 110.0000,1,   5,   5,  17,1.04976,   7.8751,1.10000,0.90000,1.10000,0.90000
  1521,'BOGTOWN     ', 110.0000,1,  11,  11,  17,1.04077,  -5.8640,1.10000,0.90000,1.10000,0.90000
  1522,'CLONEE      ', 220.0000,1,  11,  11,   7,1.01684,  -4.5194,1.10000,0.90000,1.10000,0.90000
  1531,'BALLYADAM   ', 110.0000,1,   9,   9,   3,1.00794,  13.1795,1.10000,0.90000,1.10000,0.90000
  1541,'BANOGE      ', 110.0000,1,   9,   9,   3,1.01963,   0.6305,1.10000,0.90000,1.10000,0.90000
  1551,'BOGGERAGH   ', 110.0000,1,   5,   5,  17,1.03123,  11.1494,1.10000,0.90000,1.10000,0.90000
  1561,'COOLDERRIG  ', 110.0000,1,  11,  11,   7,1.02049,  -7.0150,1.10000,0.90000,1.10000,0.90000
  1571,'ARDNAGAPPARY', 110.0000,1,   1,   1,   3,1.08063, -10.6012,1.10000,0.90000,1.10000,0.90000
  1581,'CABRA       ', 110.0000,1,  11,  11,   1,1.02549,  -6.0743,1.10000,0.90000,1.10000,0.90000
  1601,'CLASHAVOON  ', 110.0000,1,   5,   5,   3,1.03045,  11.1582,1.10000,0.90000,1.10000,0.90000
  1602,'CLASHAVOON  ', 220.0000,1,   5,   5,   3,1.03452,  11.7600,1.10000,0.90000,1.10000,0.90000
  1611,'CLONKEEN    ', 110.0000,1,   5,   5,   3,1.03500,   8.9095,1.10000,0.90000,1.10000,0.90000
  1621,'COOLROE     ', 110.0000,1,  10,  10,   2,1.01985,  11.8080,1.10000,0.90000,1.10000,0.90000
  1631,'CORDERRY    ', 110.0000,1,   1,   1,   3,1.05623,  -4.5465,1.10000,0.90000,1.10000,0.90000
  1641,'CASHLA      ', 110.0000,1,   2,   2,   2,1.05919,   1.8462,1.10000,0.90000,1.10000,0.90000
  1642,'CASHLA      ', 220.0000,1,   2,   2,   2,1.03680,   3.3486,1.10000,0.90000,1.10000,0.90000
  1651,'CLAHANE     ', 110.0000,1,   5,   5,  17,1.04091,   6.0474,1.10000,0.90000,1.10000,0.90000
  1661,'CASTLEBAR   ', 110.0000,1,   2,   2,   3,1.06737,   0.3285,1.10000,0.90000,1.10000,0.90000
  1671,'KILCUMBER   ', 110.0000,1,  11,  11,  17,1.03609,  -5.4678,1.10000,0.90000,1.10000,0.90000
  1681,'CARRIGADROHI', 110.0000,1,   6,   6,  21,1.02770,  11.2908,1.10000,0.90000,1.10000,0.90000
  1691,'CENTRAL PARK', 110.0000,1,  11,  11,   1,1.01459,  -4.2459,1.10000,0.90000,1.10000,0.90000
  1701,'CATH_FALL   ', 110.0000,1,   1,   1,   3,1.07677,  -8.4675,1.10000,0.90000,1.10000,0.90000
  1711,'CROMCASTLE  ', 110.0000,1,  11,  11,   1,1.03192,  -7.1580,1.10000,0.90000,1.10000,0.90000
  1721,'CAHIR       ', 110.0000,1,   8,   8,   3,1.00623,   4.9255,1.10000,0.90000,1.10000,0.90000
  1731,'CROMCASTLE  ', 110.0000,1,  11,  11,   1,1.03192,  -7.1580,1.10000,0.90000,1.10000,0.90000
  1741,'CARRICKMINES', 110.0000,1,  11,  11,   2,1.01434,  -4.2172,1.10000,0.90000,1.10000,0.90000
  1742,'CARRICKMINES', 220.0000,1,  11,  11,   2,1.00912,  -3.4283,1.10000,0.90000,1.10000,0.90000
  1761,'CLIFF       ', 110.0000,1,   1,   1,  13,1.07679,  -8.4678,1.10000,0.90000,1.10000,0.90000
  1781,'CASTLEFARM  ', 110.0000,1,   5,   5,   6,1.00732,   3.8484,1.10000,0.90000,1.10000,0.90000
  1801,'COOKSTOWN   ', 110.0000,1,  11,  11,   2,1.00942,  -4.3432,1.10000,0.90000,1.10000,0.90000
  1810,'DARNDALE    ', 110.0000,1,  11,  11,   7,1.00171,  -9.2710,1.10000,0.90000,1.10000,0.90000
  1811,'CLUTTERLAND ', 110.0000,1,  11,  11,   7,1.00956,  -6.8207,1.10000,0.90000,1.10000,0.90000
  1821,'CLOON       ', 110.0000,1,   2,   2,   2,1.06218,   0.1902,1.10000,0.90000,1.10000,0.90000
  1831,'SCREEB      ', 110.0000,1,   2,   2,   3,1.08310,   0.4005,1.10000,0.90000,1.10000,0.90000
  1841,'CRANE       ', 110.0000,1,   9,   9,   3,1.01990,   2.1576,1.10000,0.90000,1.10000,0.90000
  1851,'CHERRYWOOD  ', 110.0000,1,  11,  11,   6,1.01423,  -4.2474,1.10000,0.90000,1.10000,0.90000
  1861,'CARRICK ON S', 110.0000,1,   3,   3,   3,1.05418,  -4.3504,1.10000,0.90000,1.10000,0.90000
  1871,'COLLEGE PARK', 110.0000,1,  11,  11,   1,1.01495,  -7.5401,1.10000,0.90000,1.10000,0.90000
  1881,'CHARLEVILLE ', 110.0000,1,   5,   5,   2,1.02392,   7.3977,1.10000,0.90000,1.10000,0.90000
  1901,'CARLOW      ', 110.0000,1,   9,   9,   3,1.03624,   0.0183,1.10000,0.90000,1.10000,0.90000
  1921,'COW CROSS   ', 110.0000,1,  10,  10,   2,1.01141,  13.7855,1.10000,0.90000,1.10000,0.90000
  1931,'CUNGHILL    ', 110.0000,1,   2,   2,   3,1.06303,  -1.8782,1.10000,0.90000,1.10000,0.90000
  1941,'CUSHALING   ', 110.0000,1,  11,  11,  12,1.03609,  -5.4677,1.10000,0.90000,1.10000,0.90000
  1951,'CARROWBEG   ', 110.0000,1,   2,   2,   3,1.06687,  -0.1160,1.10000,0.90000,1.10000,0.90000
  1961,'CASTLEVIEW  ', 110.0000,1,  10,  10,   2,1.01025,  12.9675,1.10000,0.90000,1.10000,0.90000
  1971,'COOMAGEARLAH', 110.0000,1,   5,   5,  17,1.07097,  10.6257,1.10000,0.90000,1.10000,0.90000
  1981,'CORRACLASSY ', 110.0000,1,   1,   1,   3,1.05795,  -8.1840,1.10000,0.90000,1.10000,0.90000
  1991,'CASTLEDOCKRE', 110.0000,1,   9,   9,  17,1.01864,   2.4823,1.10000,0.90000,1.10000,0.90000
  2001,'CULLENAGH   ', 110.0000,1,  12,  12,   3,1.00949,   6.6645,1.10000,0.90000,1.10000,0.90000
  2002,'CULLENAGH   ', 220.0000,1,  12,  12,   3,1.00151,   9.0153,1.10000,0.90000,1.10000,0.90000
  2021,'CITY WEST   ', 110.0000,1,  11,  11,   2,1.01628,  -7.3537,1.10000,0.90000,1.10000,0.90000
  2041,'CORDUFF     ', 110.0000,1,  11,  11,   1,1.01507,  -7.4876,1.10000,0.90000,1.10000,0.90000
  2042,'CORDUFF     ', 220.0000,1,  11,  11,   1,1.01566,  -4.5497,1.10000,0.90000,1.10000,0.90000
  2052,'CORDUFFB    ', 220.0000,1,  11,  11,   1,1.01566,  -4.5497,1.10000,0.90000,1.10000,0.90000
  2072,'CRUISERATH  ', 220.0000,1,  11,  11,   7,1.01564,  -4.5618,1.10000,0.90000,1.10000,0.90000
  2090,'KNOCKRANNY A', 110.0000,1,   2,   2,  25,1.07354,   1.2941,1.10000,0.90000,1.10000,0.90000
  2091,'KNOCKRANNY  ', 110.0000,1,   2,   2,   3,1.07996,   0.8509,1.10000,0.90000,1.10000,0.90000
  2101,'DUNDALK     ', 110.0000,1,   7,   7,   3,1.04989,  -6.2280,1.10000,0.90000,1.10000,0.90000
  2111,'UGGOOL      ', 110.0000,1,   2,   2,  17,1.07363,   1.2933,1.10000,0.90000,1.10000,0.90000
  2121,'DRUMLINE    ', 110.0000,1,   4,   4,   2,1.03733,   3.4457,1.10000,0.90000,1.10000,0.90000
  2131,'DROMADA     ', 110.0000,1,   5,   5,  17,1.04804,   7.9039,1.10000,0.90000,1.10000,0.90000
  2141,'DUNGARVAN   ', 110.0000,1,  12,  12,   3,1.00964,   8.5494,1.10000,0.90000,1.10000,0.90000
  2161,'DOON        ', 110.0000,1,   8,   8,   3,1.00111,   4.8805,1.10000,0.90000,1.10000,0.90000
  2171,'KNOCKALOUGH ', 110.0000,1,   2,   2,  18,1.08082,   0.8426,1.10000,0.90000,1.10000,0.90000
  2181,'DRYBRIDGE   ', 110.0000,1,   7,   7,   2,1.02857,  -7.4933,1.10000,0.90000,1.10000,0.90000
  2202,'DUNSTOWN    ', 220.0000,1,  11,  11,   1,1.01093,  -1.3469,1.10000,0.90000,1.10000,0.90000
  2204,'DUNSTOWN    ', 380.0000,1,  11,  11,   1,1.00095,   1.1067,1.10000,0.90000,1.10000,0.90000
  2221,'DUNMANWAY   ', 110.0000,1,   6,   6,   3,1.02576,  11.0089,1.10000,0.90000,1.10000,0.90000
  2225,'DUNMANWAY   ', 110.0000,1,   6,   6,   3,1.02576,  11.0089,1.10000,0.90000,1.10000,0.90000
  2231,'DERRYBRIEN  ', 110.0000,1,   4,   4,  17,1.04143,   1.5185,1.10000,0.90000,1.10000,0.90000
  2241,'DALLOW      ', 110.0000,1,   8,   8,   3,1.03405,  -1.1105,1.10000,0.90000,1.10000,0.90000
  2251,'DARDISTOWN  ', 110.0000,1,  11,  11,   6,1.03219,  -7.1313,1.10000,0.90000,1.10000,0.90000
  2261,'DERRYIRON   ', 110.0000,1,  11,  11,  11,1.03821,  -6.1424,1.10000,0.90000,1.10000,0.90000
  2281,'DALTON_A1   ', 110.0000,1,   2,   2,   3,1.06489,   0.4061,1.10000,0.90000,1.10000,0.90000
  2301,'DUNFIRTH    ', 110.0000,1,  11,  11,   2,1.03076,  -6.5485,1.10000,0.90000,1.10000,0.90000
  2321,'DRUMKEEN    ', 110.0000,1,   1,   1,   3,1.08330, -11.0279,1.10000,0.90000,1.10000,0.90000
  2361,'ENNIS       ', 110.0000,1,   4,   4,   2,1.04649,   3.0675,1.10000,0.90000,1.10000,0.90000
  2391,'KILL HILL   ', 110.0000,1,   8,   8,  17,1.01124,   3.7122,1.10000,0.90000,1.10000,0.90000
  2401,'MOUNT LUCAS ', 110.0000,1,  11,  11,  17,1.03999,  -5.8435,1.10000,0.90000,1.10000,0.90000
  2421,'CORKAGH     ', 110.0000,1,  11,  11,   7,1.00943,  -6.8467,1.10000,0.90000,1.10000,0.90000
  2481,'FASS EAST   ', 110.0000,1,  11,  11,   2,1.00843,  -4.3358,1.10000,0.90000,1.10000,0.90000
  2491,'FASS WEST   ', 110.0000,1,  11,  11,   2,1.00849,  -4.3286,1.10000,0.90000,1.10000,0.90000
  2521,'FLAGFORD    ', 110.0000,1,   2,   2,   3,1.05427,  -4.1987,1.10000,0.90000,1.10000,0.90000
  2522,'FLAGFORD    ', 220.0000,1,   2,   2,   3,1.04636,  -2.3216,1.10000,0.90000,1.10000,0.90000
  2541,'FRN ST A    ', 110.0000,1,  11,  11,   1,1.03334,  -6.2848,1.10000,0.90000,1.10000,0.90000
  2551,'FRN ST B    ', 110.0000,1,  11,  11,   1,1.02348,  -6.1089,1.10000,0.90000,1.10000,0.90000
  2561,'FIN_URBAN   ', 110.0000,1,  11,  11,   1,1.02581,  -5.9897,1.10000,0.90000,1.10000,0.90000
  2562,'FINGLAS     ', 220.0000,1,  11,  11,   1,1.01767,  -4.8383,1.10000,0.90000,1.10000,0.90000
  2563,'FINGLAS220B ', 220.0000,1,  11,  11,   1,1.01767,  -4.8383,1.10000,0.90000,1.10000,0.90000
  2571,'FIN_RURAL   ', 110.0000,1,  11,  11,   1,1.03193,  -6.9906,1.10000,0.90000,1.10000,0.90000
  2581,'FINGLAS B5  ', 110.0000,1,  11,  11,   1,1.01520,  -7.5437,1.10000,0.90000,1.10000,0.90000
  2591,'FORTUNESTOWN', 110.0000,1,  11,  11,   1,1.01605,  -7.3637,1.10000,0.90000,1.10000,0.90000
  2671,'GARVAGH     ', 110.0000,1,   1,   1,   3,1.05466,  -4.5298,1.10000,0.90000,1.10000,0.90000
  2681,'GILRA       ', 110.0000,1,   3,   3,   6,1.05140,  -4.3878,1.10000,0.90000,1.10000,0.90000
  2691,'GARBALLAGH  ', 110.0000,1,   7,   7,  23,1.02713,  -7.2972,1.10000,0.90000,1.10000,0.90000
  2701,'GLASMORE    ', 110.0000,1,  11,  11,   2,1.02598,  -7.5683,1.10000,0.90000,1.10000,0.90000
  2721,'GRIFFINRATH ', 110.0000,1,  11,  11,   2,1.02521,  -4.9623,1.10000,0.90000,1.10000,0.90000
  2731,'GLANLEE     ', 110.0000,1,   5,   5,  17,1.07099,  10.6250,1.10000,0.90000,1.10000,0.90000
  2741,'GREAT ISLAND', 110.0000,1,   9,   9,   3,1.01065,   5.7354,1.10000,0.90000,1.10000,0.90000
  2742,'GREAT ISLAND', 220.0000,1,   9,   9,   3,1.00000,   8.1053,1.10000,0.90000,1.10000,0.90000
  2761,'GRANGE      ', 110.0000,1,  11,  11,   1,1.03192,  -7.1742,1.10000,0.90000,1.10000,0.90000
  2771,'GARROW      ', 110.0000,1,   5,   5,  17,1.06958,  10.6822,1.10000,0.90000,1.10000,0.90000
  2781,'GALWAY      ', 110.0000,1,   2,   2,   1,1.06592,   1.3608,1.10000,0.90000,1.10000,0.90000
  2791,'GALLANSTOWN ', 110.0000,1,  11,  11,  23,1.01826,  -7.4940,1.10000,0.90000,1.10000,0.90000
  2801,'GOLAGH      ', 110.0000,1,   1,   1,  17,1.08818,  -9.8209,1.10000,0.90000,1.10000,0.90000
  2821,'GORTAWEE    ', 110.0000,1,   1,   1,   3,1.05294,  -8.2704,1.10000,0.90000,1.10000,0.90000
  2841,'GORMAN      ', 110.0000,1,   7,   7,   3,1.03110,  -6.8173,1.10000,0.90000,1.10000,0.90000
  2842,'GORMAN      ', 220.0000,1,   7,   7,   3,1.02726,  -4.5727,1.10000,0.90000,1.10000,0.90000
  2852,'GLANAGOW    ', 220.0000,1,  10,  10,   9,1.00000,  18.1598,1.10000,0.90000,1.10000,0.90000
  2861,'GRANGE CASTL', 110.0000,1,  11,  11,   1,1.02054,  -6.9950,1.10000,0.90000,1.10000,0.90000
  2870,'CLOGHER     ', 110.0000,1,   1,   1,   3,1.08819,  -9.8112,1.10000,0.90000,1.10000,0.90000
  2871,'CLOGHER     ', 110.0000,1,   1,   1,   3,1.08819,  -9.8112,1.10000,0.90000,1.10000,0.90000
  2881,'GLENLARA    ', 110.0000,1,   5,   5,   3,1.02018,   6.9801,1.10000,0.90000,1.10000,0.90000
  2941,'HAROLDS CROS', 110.0000,1,  11,  11,   1,1.03335,  -6.2755,1.10000,0.90000,1.10000,0.90000
  2951,'HEUSTON SQUA', 110.0000,1,  11,  11,   1,1.02347,  -6.1025,1.10000,0.90000,1.10000,0.90000
  2962,'HUNTSTOWN   ', 220.0000,1,  11,  11,   9,1.01768,  -4.8384,1.10000,0.90000,1.10000,0.90000
  2972,'HUNTSTOWN 2 ', 220.0000,1,  11,  11,   9,1.01280,  -4.2217,1.10000,0.90000,1.10000,0.90000
  3061,'INISCARRA   ', 110.0000,1,   6,   6,  13,1.02112,  11.7268,1.10000,0.90000,1.10000,0.90000
  3081,'INCH_CITY   ', 110.0000,1,  11,  11,   1,1.02351,  -6.0714,1.10000,0.90000,1.10000,0.90000
  3082,'INCHICORE   ', 220.0000,1,  11,  11,   1,1.01756,  -4.4647,1.10000,0.90000,1.10000,0.90000
  3091,'INCH_COUNTRY', 110.0000,1,  11,  11,   1,1.02130,  -6.8339,1.10000,0.90000,1.10000,0.90000
  3101,'IKERRIN     ', 110.0000,1,   8,   8,   3,1.02043,   1.1517,1.10000,0.90000,1.10000,0.90000
  3122,'IRISHTOWN   ', 220.0000,1,  11,  11,   1,1.01162,  -3.6794,1.10000,0.90000,1.10000,0.90000
  3190,'KNOCKANURE  ', 110.0000,1,   5,   5,   3,1.03880,   6.0947,1.10000,0.90000,1.10000,0.90000
  3191,'KNOCKANURE  ', 110.0000,1,   5,   5,   3,1.04647,   7.9213,1.10000,0.90000,1.10000,0.90000
  3192,'KNOCKANURE  ', 220.0000,1,   5,   5,   3,1.03912,   7.9278,1.10000,0.90000,1.10000,0.90000
  3201,'KNOCKRAHA   ', 110.0000,1,  10,  10,   2,1.01180,  12.7782,1.10000,0.90000,1.10000,0.90000
  3202,'KNOCKRAHA   ', 220.0000,1,  10,  10,   2,1.00579,  15.2193,1.10000,0.90000,1.10000,0.90000
  3203,'KNOCKRAHA   ', 220.0000,1,  10,  10,   2,1.00579,  15.2193,1.10000,0.90000,1.10000,0.90000
  3209,'KNOCKRAHA   ', 110.0000,1,  10,  10,   2,1.01180,  12.7782,1.10000,0.90000,1.10000,0.90000
  3221,'KILBARRY    ', 110.0000,1,  10,  10,   3,1.01432,  12.3476,1.10000,0.90000,1.10000,0.90000
  3241,'KILTEEL     ', 110.0000,1,  11,  11,   2,1.02612,  -5.6403,1.10000,0.90000,1.10000,0.90000
  3251,'REAMORE     ', 110.0000,1,   5,   5,  19,1.04298,   6.0275,1.10000,0.90000,1.10000,0.90000
  3261,'KILKENNY    ', 110.0000,1,   9,   9,   3,1.02509,   1.9286,1.10000,0.90000,1.10000,0.90000
  3281,'KILLONAN    ', 110.0000,1,   8,   8,   2,1.02861,   5.0183,1.10000,0.90000,1.10000,0.90000
  3282,'KILLONAN    ', 220.0000,1,   8,   8,   2,1.01412,   6.7735,1.10000,0.90000,1.10000,0.90000
  3301,'KNOCKEARAGH ', 110.0000,1,   5,   5,   3,1.03832,   7.3882,1.10000,0.90000,1.10000,0.90000
  3321,'KNOCKUMBER  ', 110.0000,1,   7,   7,   6,1.02516,  -7.1561,1.10000,0.90000,1.10000,0.90000
  3330,'BALLYNAHULLA', 110.0000,1,   5,   5,   3,1.07350,   9.8741,1.10000,0.90000,1.10000,0.90000
  3331,'BALLYNAHULLA', 110.0000,1,   5,   5,   3,1.07350,   9.8741,1.10000,0.90000,1.10000,0.90000
  3332,'BALLYNAHULLA', 220.0000,1,   5,   5,   3,1.05185,   9.8943,1.10000,0.90000,1.10000,0.90000
  3341,'KELLIS      ', 110.0000,1,   9,   9,   3,1.03712,   0.3966,1.10000,0.90000,1.10000,0.90000
  3342,'KELLIS      ', 220.0000,1,   9,   9,   3,1.00337,   2.1190,1.10000,0.90000,1.10000,0.90000
  3352,'KELLYSTOWN  ', 220.0000,1,  11,  11,   6,1.01608,  -4.0893,1.10000,0.90000,1.10000,0.90000
  3381,'KINNEGAD    ', 110.0000,1,  11,  11,   6,1.04161,  -6.5541,1.10000,0.90000,1.10000,0.90000
  3391,'KNOCKACUMMER', 110.0000,1,   5,   5,  17,1.08277,   9.7515,1.10000,0.90000,1.10000,0.90000
  3401,'KILLOTERAN  ', 110.0000,1,  12,  12,   3,1.00952,   6.0121,1.10000,0.90000,1.10000,0.90000
  3421,'KILMORE     ', 110.0000,1,  11,  11,   1,1.03190,  -7.1576,1.10000,0.90000,1.10000,0.90000
...
0 / END OF BUS DATA, BEGIN LOAD DATA
    10,'LD',1,  11,   1,    23.450,    -1.950,     0.000,     0.000,     0.000,     0.000,   2,1,0
    11,'LD',1,  11,   1,    21.030,    -1.940,     0.000,     0.000,     0.000,     0.000,   2,1,0
    12,'LD',1,  11,   1,    15.200,     0.340,     0.000,     0.000,     0.000,     0.000,   2,1,0
    13,'LD',1,  11,   1,    23.500,    -0.800,     0.000,     0.000,     0.000,     0.000,   2,1,0
    14,'LD',1,  11,   1,    18.000,     1.420,     0.000,     0.000,     0.000,     0.000,   2,1,0
    15,'LD',1,  11,   1,    18.100,     0.100,     0.000,     0.000,     0.000,     0.000,   2,1,0
  1101,'I ',1,   8,   2,    14.000,     6.900,     0.000,     0.000,     0.000,     0.000,   5,0,0
  1101,'MI',0,   8,   2,     1.330,     0.100,     0.000,     0.000,     0.000,     0.000,   5,0,0
  4341,'I ',1,  10,   2,     0.300,     0.100,     0.000,     0.000,     0.000,     0.000,   5,0,0
 10204,'LD',1,   4,   1,    23.170,     1.420,     0.000,     0.000,     0.000,     0.000,   2,1,0
 10205,'LD',1,   4,   1,    10.000,     1.000,     0.000,     0.000,     0.000,     0.000,   2,1,0
 10602,'LD',1,   1,   1,     1.200,    -0.560,     0.000,     0.000,     0.000,     0.000,   2,1,0
 10801,'LD',1,   8,   1,     1.440,    -0.570,     0.000,     0.000,     0.000,     0.000,   2,1,0
 10902,'I ',1,  11,   2,     9.500,     3.120,     0.000,     0.000,     0.000,     0.000,   5,0,0
 10902,'LD',1,  11,   1,     3.000,     0.500,     0.000,     0.000,     0.000,     0.000,   2,1,0
 10902,'MI',0,  11,   2,     0.500,     0.000,     0.000,     0.000,     0.000,     0.000,   5,0,0
 11201,'LD',1,   9,   1,     2.360,    -0.020,     0.000,     0.000,     0.000,     0.000,   2,1,0
 11204,'LD',1,   9,   1,    20.000,   -10.480,     0.000,     0.000,     0.000,     0.000,   2,1,0
 11404,'LD',1,   3,   1,    25.720,    -4.930,     0.000,     0.000,     0.000,     0.000,   2,1,0
 12001,'LD',1,  11,   1,     3.690,    -0.710,     0.000,     0.000,     0.000,     0.000,   2,1,0
 12201,'LD',1,  11,   1,     6.280,     0.560,     0.000,     0.000,     0.000,     0.000,   2,1,0
 12702,'LD',1,   7,   1,     5.000,    -1.410,     0.000,     0.000,     0.000,     0.000,   2,1,0
 12804,'LD',1,   6,   1,     5.200,    -3.470,     0.000,     0.000,     0.000,     0.000,   2,1,0
 13001,'LD',1,   9,   1,     4.440,    -0.940,     0.000,     0.000,     0.000,     0.000,   2,1,0
 13204,'LD',1,  11,   1,     7.060,    -0.090,     0.000,     0.000,     0.000,     0.000,   2,1,0
 13404,'LD',1,   1,   1,     7.040,    -0.670,     0.000,     0.000,     0.000,     0.000,   2,1,0
 13501,'I ',1,  11,   2,     5.260,     0.820,     0.000,     0.000,     0.000,     0.000,   5,0,0
 13501,'MI',0,  11,   2,     4.240,     2.180,     0.000,     0.000,     0.000,     0.000,   5,0,0
 13601,'I ',1,   8,   2,     5.990,     1.670,     0.000,     0.000,     0.000,     0.000,   5,0,0
 13601,'MI',0,   8,   2,     3.220,     1.330,     0.000,     0.000,     0.000,     0.000,   5,0,0
 13604,'LD',1,   8,   1,     3.450,     0.430,     0.000,     0.000,     0.000,     0.000,   2,1,0
 13702,'I ',1,  11,   2,    14.910,     1.640,     0.000,     0.000,     0.000,     0.000,   5,0,0
 13702,'MI',0,  11,   2,    26.840,     2.950,     0.000,     0.000,     0.000,     0.000,   5,0,0
 13802,'LD',1,  10,   1,    19.960,     3.850,     0.000,     0.000,     0.000,     0.000,   2,1,0
 13804,'LD',1,  10,   1,     6.650,     1.280,     0.000,     0.000,     0.000,     0.000,   2,1,0
 13812,'LD',1,  10,   1,     3.690,     0.710,     0.000,     0.000,     0.000,     0.000,   2,1,0
 14004,'LD',1,   2,   1,     1.930,    -0.400,     0.000,     0.000,     0.000,     0.000,   2,1,0
 14102,'I ',1,  11,   2,    56.940,     2.550,     0.000,     0.000,     0.000,     0.000,   5,0,0
 14102,'MI',0,  11,   2,     9.560,     0.430,     0.000,     0.000,     0.000,     0.000,   5,0,0
 14204,'LD',1,  11,   1,    20.130,     6.300,     0.000,     0.000,     0.000,     0.000,   2,1,0
 14304,'LD',1,   9,   1,     8.050,     1.750,     0.000,     0.000,     0.000,     0.000,   2,1,0
 14401,'LD',1,   6,   1,     3.420,     0.160,     0.000,     0.000,     0.000,     0.000,   2,1,0
 14404,'LD',1,   6,   1,    15.040,    -0.350,     0.000,     0.000,     0.000,     0.000,   2,1,0
 14502,'I ',1,  11,   2,    71.000,     9.500,     0.000,     0.000,     0.000,     0.000,   5,0,0
 14502,'MI',0,  11,   2,    14.500,     2.050,     0.000,     0.000,     0.000,     0.000,   5,0,0
 14604,'LD',1,   8,   1,    14.270,    -2.520,     0.000,     0.000,     0.000,     0.000,   2,1,0
 14804,'LD',1,  12,   1,    14.830,    -0.210,     0.000,     0.000,     0.000,     0.000,   2,1,0
 15001,'I ',1,   6,   2,     3.950,     0.980,     0.000,     0.000,     0.000,     0.000,   5,0,0
 15001,'MI',0,   6,   2,     2.220,     1.020,     0.000,     0.000,     0.000,     0.000,   5,0,0
 15202,'I ',1,  11,   2,   127.740,     8.090,     0.000,     0.000,     0.000,     0.000,   5,0,0
 15202,'MI',0,  11,   2,    21.950,     1.390,     0.000,     0.000,     0.000,     0.000,   5,0,0
 15402,'LD',1,   9,   1,     3.000,    -0.010,     0.000,     0.000,     0.000,     0.000,   2,1,0
 15602,'I ',1,  11,   2,    30.000,     0.000,     0.000,     0.000,     0.000,     0.000,   5,0,0
 15602,'MI',0,  11,   2,    15.000,     0.000,     0.000,     0.000,     0.000,     0.000,   5,0,0
 15704,'LD',1,   1,   1,     3.000,     0.700,     0.000,     0.000,     0.000,     0.000,   2,1,0
 15801,'LD',1,  11,   1,     3.870,     1.220,     0.000,     0.000,     0.000,     0.000,   2,1,0
 16202,'LD',1,  10,   1,     4.750,     0.000,     0.000,     0.000,     0.000,     0.000,   2,1,0
 16604,'LD',1,   2,   1,     9.000,     0.000,     0.000,     0.000,     0.000,     0.000,   2,1,0
 16901,'LD',1,  11,   1,     4.190,    -0.900,     0.000,     0.000,     0.000,     0.000,   2,1,0
 17004,'LD',1,   1,   1,     6.000,     1.000,     0.000,     0.000,     0.000,     0.000,   2,1,0
 17204,'LD',1,   8,   1,     9.520,    -0.110,     0.000,     0.000,     0.000,     0.000,   2,1,0
 17404,'LD',1,  11,   1,    22.370,     1.400,     0.000,     0.000,     0.000,     0.000,   2,1,0
 17802,'I ',1,   5,   2,    50.800,    24.520,     0.000,     0.000,     0.000,     0.000,   5,0,0
 18001,'LD',1,  11,   1,     7.290,     0.500,     0.000,     0.000,     0.000,     0.000,   2,1,0
 18004,'LD',1,  11,   1,    16.000,     4.280,     0.000,     0.000,     0.000,     0.000,   2,1,0
 18101,'I ',1,  11,   2,   117.290,    12.910,     0.000,     0.000,     0.000,     0.000,   5,0,0
 18101,'MI',0,  11,   2,    23.860,     2.620,     0.000,     0.000,     0.000,     0.000,   5,0,0
 18102,'I ',1,  11,   2,    37.920,     2.400,     0.000,     0.000,     0.000,     0.000,   5,0,0
 18102,'MI',0,  11,   2,    86.830,     5.500,     0.000,     0.000,     0.000,     0.000,   5,0,0
 18204,'LD',1,   2,   1,    11.890,    -1.110,     0.000,     0.000,     0.000,     0.000,   2,1,0
 18304,'LD',1,   2,   1,     7.000,    -2.850,     0.000,     0.000,     0.000,     0.000,   2,1,0
 18402,'LD',1,   9,   1,     4.170,    -0.400,     0.000,     0.000,     0.000,     0.000,   2,1,0
 18404,'LD',1,   9,   1,     7.540,    -1.630,     0.000,     0.000,     0.000,     0.000,   2,1,0
 18504,'LD',1,  11,   1,     6.000,     0.000,     0.000,     0.000,     0.000,     0.000,   2,1,0
 18604,'LD',1,   3,   1,     9.020,    -0.020,     0.000,     0.000,     0.000,     0.000,   2,1,0
 18701,'LD',1,  11,   1,    21.560,     1.630,     0.000,     0.000,     0.000,     0.000,   2,1,0
 18804,'LD',1,   5,   1,     5.740,    -0.640,     0.000,     0.000,     0.000,     0.000,   2,1,0
 19004,'LD',1,   9,   1,    22.290,    -6.250,     0.000,     0.000,     0.000,     0.000,   2,1,0
 19204,'LD',1,  10,   1,     4.000,     0.050,     0.000,     0.000,     0.000,     0.000,   2,1,0
 19504,'LD',1,   2,   1,     9.660,    -0.690,     0.000,     0.000,     0.000,     0.000,   2,1,0
 19601,'LD',1,  10,   1,    14.480,     1.850,     0.000,     0.000,     0.000,     0.000,   2,1,0
 20201,'LD',1,  11,   1,    10.870,     3.570,     0.000,     0.000,     0.000,     0.000,   2,1,0
 20402,'LD',1,  11,   1,    11.420,     1.210,     0.000,     0.000,     0.000,     0.000,   2,1,0
 20701,'I ',1,  11,   2,    66.930,     3.000,     0.000,     0.000,     0.000,     0.000,   5,0,0
 20701,'MI',0,  11,   2,   172.830,     7.730,     0.000,     0.000,     0.000,     0.000,   5,0,0
 21004,'LD',1,   7,   1,    18.930,    -0.180,     0.000,     0.000,     0.000,     0.000,   2,1,0
 21204,'LD',1,   4,   1,     9.270,     0.200,     0.000,     0.000,     0.000,     0.000,   2,1,0
 21404,'LD',1,  12,   1,    14.880,    -2.270,     0.000,     0.000,     0.000,     0.000,   2,1,0
 21604,'LD',1,   8,   1,    10.270,     0.010,     0.000,     0.000,     0.000,     0.000,   2,1,0
 21804,'LD',1,   7,   1,    29.610,    -7.020,     0.000,     0.000,     0.000,     0.000,   2,1,0
 22208,'LD',1,   6,   1,    12.930,    -1.780,     0.000,     0.000,     0.000,     0.000,   2,1,0
 22404,'LD',1,   8,   1,     4.660,    -1.100,     0.000,     0.000,     0.000,     0.000,   2,1,0
 22501,'LD',1,  11,   1,     7.000,     2.310,     0.000,     0.000,     0.000,     0.000,   2,1,0
 22804,'LD',1,   2,   1,    10.910,    -1.500,     0.000,     0.000,     0.000,     0.000,   2,1,0
 23002,'LD',1,  11,   1,     3.120,    -0.050,     0.000,     0.000,     0.000,     0.000,   2,1,0
 23601,'LD',1,   4,   1,     4.000,     0.500,     0.000,     0.000,     0.000,     0.000,   2,1,0
 23604,'LD',1,   4,   1,    12.590,    -0.020,     0.000,     0.000,     0.000,     0.000,   2,1,0
 24202,'I ',1,  11,   2,   124.880,     5.590,     0.000,     0.000,     0.000,     0.000,   5,0,0
 24202,'MI',0,  11,   2,    58.940,     2.640,     0.000,     0.000,     0.000,     0.000,   5,0,0
 24804,'LD',1,  11,   1,    19.690,     0.160,     0.000,     0.000,     0.000,     0.000,   2,1,0
 25604,'LD',1,  11,   1,    20.560,    -2.180,     0.000,     0.000,     0.000,     0.000,   2,1,0
 25901,'LD',1,  11,   1,     6.090,    -0.210,     0.000,     0.000,     0.000,     0.000,   2,1,0
 26802,'I ',1,   3,   2,    11.420,     2.830,     0.000,     0.000,     0.000,     0.000,   5,0,0
 27004,'LD',1,  11,   1,    27.850,     9.000,     0.000,     0.000,     0.000,     0.000,   2,1,0
 27204,'LD',1,  11,   1,    24.150,    -0.060,     0.000,     0.000,     0.000,     0.000,   2,1,0
 27404,'LD',1,   9,   1,     6.870,     0.210,     0.000,     0.000,     0.000,     0.000,   2,1,0
 27604,'LD',1,  11,   1,    22.590,     2.570,     0.000,     0.000,     0.000,     0.000,   2,1,0
 27801,'LD',1,   2,   1,     3.910,     0.000,     0.000,     0.000,     0.000,     0.000,   2,1,0
 27804,'LD',1,   2,   1,    23.120,    -4.250,     0.000,     0.000,     0.000,     0.000,   2,1,0
 28201,'I ',1,   1,   2,    22.800,     7.490,     0.000,     0.000,     0.000,     0.000,   5,0,0
 28204,'LD',1,   1,   1,     6.570,     1.010,     0.000,     0.000,     0.000,     0.000,   2,1,0
 28601,'LD',1,  11,   1,    14.990,     0.110,     0.000,     0.000,     0.000,     0.000,   2,1,0
 28604,'LD',1,  11,   1,    16.890,    -2.140,     0.000,     0.000,     0.000,     0.000,   2,1,0
 28804,'LD',1,   5,   1,     8.060,     0.630,     0.000,     0.000,     0.000,     0.000,   2,1,0
 29401,'LD',1,  11,   1,     6.270,     2.040,     0.000,     0.000,     0.000,     0.000,   2,1,0
 29501,'LD',1,  11,   1,     6.300,     0.950,     0.000,     0.000,     0.000,     0.000,   2,1,0
 30804,'LD',1,  11,   1,    20.450,     2.500,     0.000,     0.000,     0.000,     0.000,   2,1,0
 31004,'LD',1,   8,   1,    10.060,     3.010,     0.000,     0.000,     0.000,     0.000,   2,1,0
 32201,'LD',1,  10,   1,     4.500,     0.000,     0.000,     0.000,     0.000,     0.000,   2,1,0
 32204,'LD',1,  10,   1,    21.090,    -6.350,     0.000,     0.000,     0.000,     0.000,   2,1,0
 32404,'LD',1,  11,   1,     9.660,    -1.380,     0.000,     0.000,     0.000,     0.000,   2,1,0
 32604,'LD',1,   9,   1,    15.230,    -0.960,     0.000,     0.000,     0.000,     0.000,   2,1,0
 33004,'LD',1,   5,   1,    15.700,    -3.850,     0.000,     0.000,     0.000,     0.000,   2,1,0
 33201,'I ',1,   7,   2,    23.660,    10.990,     0.000,     0.000,     0.000,     0.000,   5,0,0
 33201,'MI',0,   7,   2,     4.550,     1.810,     0.000,     0.000,     0.000,     0.000,   5,0,0
 33502,'I ',1,  11,   2,   114.000,    37.470,     0.000,     0.000,     0.000,     0.000,   5,0,0
 33502,'MI',0,  11,   2,    80.750,    26.540,     0.000,     0.000,     0.000,     0.000,   5,0,0
 33801,'I ',1,  11,   2,    10.190,     2.440,     0.000,     0.000,     0.000,     0.000,   5,0,0
 33801,'MI',0,  11,   2,     1.530,     1.560,     0.000,     0.000,     0.000,     0.000,   5,0,0
 34001,'LD',1,  12,   1,     5.700,     0.480,     0.000,     0.000,     0.000,     0.000,   2,1,0
 34301,'I ',1,  11,   2,    29.610,     4.820,     0.000,     0.000,     0.000,     0.000,   5,0,0
 34301,'MI',0,  11,   2,    13.820,     2.250,     0.000,     0.000,     0.000,     0.000,   5,0,0
 35004,'LD',1,   3,   1,     5.130,    -0.090,     0.000,     0.000,     0.000,     0.000,   2,1,0
 35404,'LD',1,   5,   1,    33.840,    -0.020,     0.000,     0.000,     0.000,     0.000,   2,1,0
 35604,'LD',1,   7,   1,    11.000,     2.880,     0.000,     0.000,     0.000,     0.000,   2,1,0
 35804,'LD',1,   1,   1,    17.680,    -2.730,     0.000,     0.000,     0.000,     0.000,   2,1,0
 36001,'LD',1,  10,   1,     8.470,     1.120,     0.000,     0.000,     0.000,     0.000,   2,1,0
 36503,'I ',1,  11,   2,    18.000,     0.000,     0.000,     0.000,     0.000,     0.000,   5,0,0
 36503,'MI',0,  11,   2,    32.000,     0.000,     0.000,     0.000,     0.000,     0.000,   5,0,0
 36802,'I ',1,  11,   2,    13.980,     1.090,     0.000,     0.000,     0.000,     0.000,   5,0,0
 36802,'MI',0,  11,   2,    65.780,     5.100,     0.000,     0.000,     0.000,     0.000,   5,0,0
 37501,'LD',1,  11,   1,     7.100,    -0.820,     0.000,     0.000,     0.000,     0.000,   2,1,0
 37601,'LD',1,  11,   1,    10.330,    -0.850,     0.000,     0.000,     0.000,     0.000,   2,1,0
 37602,'I ',1,  11,   2,     4.580,     0.550,     0.000,     0.000,     0.000,     0.000,   5,0,0
 37602,'MI',0,  11,   2,     5.860,     2.450,     0.000,     0.000,     0.000,     0.000,   5,0,0
 38001,'LD',1,  10,   1,     8.510,     1.450,     0.000,     0.000,     0.000,     0.000,   2,1,0
 38004,'LD',1,  10,   1,    15.680,     1.550,     0.000,     0.000,     0.000,     0.000,   2,1,0
 38204,'LD',1,   7,   1,    17.360,     2.660,     0.000,     0.000,     0.000,     0.000,   2,1,0
 38601,'LD',1,  11,   1,     2.490,    -0.500,     0.000,     0.000,     0.000,     0.000,   2,1,0
 38701,'LD',1,  11,   1,     3.590,    -0.700,     0.000,     0.000,     0.000,     0.000,   2,1,0
 38804,'LD',1,   6,   1,     9.660,     4.790,     0.000,     0.000,     0.000,     0.000,   2,1,0
 39601,'LD',1,  10,   1,     4.340,     0.000,     0.000,     0.000,     0.000,     0.000,   2,1,0
 39801,'I ',1,   5,   2,    21.500,    12.100,     0.000,     0.000,     0.000,     0.000,   5,0,0
 40001,'LD',1,   3,   1,     5.450,    -0.570,     0.000,     0.000,     0.000,     0.000,   2,1,0
 40004,'LD',1,   3,   1,    12.000,    -2.730,     0.000,     0.000,     0.000,     0.000,   2,1,0
 40204,'LD',1,   5,   1,     8.110,     0.200,     0.000,     0.000,     0.000,     0.000,   2,1,0
 40404,'LD',1,   2,   1,    13.530,    -0.720,     0.000,     0.000,     0.000,     0.000,   2,1,0
 40602,'I ',1,   7,   2,     4.460,     1.330,     0.000,     0.000,     0.000,     0.000,   5,0,0
 40602,'LD',1,   7,   1,     2.290,    -0.490,     0.000,     0.000,     0.000,     0.000,   2,1,0
 40602,'MI',0,   7,   2,     0.830,     0.170,     0.000,     0.000,     0.000,     0.000,   5,0,0
 40801,'LD',1,  11,   1,     7.330,     0.620,     0.000,     0.000,     0.000,     0.000,   2,1,0
 41002,'I ',1,  11,   2,    32.000,     6.210,     0.000,     0.000,     0.000,     0.000,   5,0,0
 41002,'MI',0,  11,   2,    12.140,     2.520,     0.000,     0.000,     0.000,     0.000,   5,0,0
 41102,'I ',1,  11,   2,    43.000,     7.170,     0.000,     0.000,     0.000,     0.000,   5,0,0
 41102,'MI',0,  11,   2,    20.100,     3.500,     0.000,     0.000,     0.000,     0.000,   5,0,0
 42004,'LD',1,  11,   1,    15.040,    -1.300,     0.000,     0.000,     0.000,     0.000,   2,1,0
 42101,'LD',1,  11,   1,    10.790,    -0.990,     0.000,     0.000,     0.000,     0.000,   2,1,0
 42204,'LD',1,   7,   1,    17.770,     2.270,     0.000,     0.000,     0.000,     0.000,   2,1,0
 42604,'LD',1,   8,   1,    11.410,     2.000,     0.000,     0.000,     0.000,     0.000,   2,1,0
 42802,'I ',1,  11,   2,    11.110,     2.630,     0.000,     0.000,     0.000,     0.000,   5,0,0
 42802,'MI',0,  11,   2,    14.890,     5.370,     0.000,     0.000,     0.000,     0.000,   5,0,0
 43604,'LD',1,   5,   1,    10.570,    -1.700,     0.000,     0.000,     0.000,     0.000,   2,1,0
 44001,'LD',1,  11,   1,     7.790,    -0.510,     0.000,     0.000,     0.000,     0.000,   2,1,0
 44804,'LD',1,  11,   1,    15.610,    -3.780,     0.000,     0.000,     0.000,     0.000,   2,1,0
 44901,'LD',1,  11,   1,     3.500,    -0.800,     0.000,     0.000,     0.000,     0.000,   2,1,0
 45001,'I ',1,   7,   2,    18.000,     5.900,     0.000,     0.000,     0.000,     0.000,   5,0,0
 45001,'MI',0,   7,   2,    29.500,     4.100,     0.000,     0.000,     0.000,     0.000,   5,0,0
 45101,'LD',1,  11,   1,     7.290,     0.000,     0.000,     0.000,     0.000,     0.000,   2,1,0
 46210,'I ',1,  11,   2,    34.840,    14.000,     0.000,     0.000,     0.000,     0.000,   5,0,0
 46214,'I ',1,  11,   2,    34.840,    14.000,     0.000,     0.000,     0.000,     0.000,   5,0,0
 46224,'I ',1,  11,   2,    34.840,    14.000,     0.000,     0.000,     0.000,     0.000,   5,0,0
 46501,'LD',1,  11,   1,     7.160,     2.340,     0.000,     0.000,     0.000,     0.000,   2,1,0
 46804,'LD',1,   5,   1,    19.000,    -1.530,     0.000,     0.000,     0.000,     0.000,   2,1,0
 46902,'I ',1,   7,   2,    12.800,     2.240,     0.000,     0.000,     0.000,     0.000,   5,0,0
 46902,'MI',0,   7,   2,    85.700,    15.020,     0.000,     0.000,     0.000,     0.000,   5,0,0
 47004,'LD',1,   3,   1,    10.000,    -0.490,     0.000,     0.000,     0.000,     0.000,   2,1,0
 47402,'I ',1,  11,   2,     9.130,     1.430,     0.000,     0.000,     0.000,     0.000,   5,0,0
 47402,'MI',0,  11,   2,     6.060,     3.570,     0.000,     0.000,     0.000,     0.000,   5,0,0
 49001,'I ',1,   9,   2,     2.290,     0.700,     0.000,     0.000,     0.000,     0.000,   5,0,0
 49001,'MI',0,   9,   2,     1.000,     0.000,     0.000,     0.000,     0.000,     0.000,   5,0,0
 49504,'LD',1,   2,   1,    13.610,    -2.880,     0.000,     0.000,     0.000,     0.000,   2,1,0
 49604,'LD',1,   7,   1,    19.480,    -0.410,     0.000,     0.000,     0.000,     0.000,   2,1,0
 49804,'LD',1,   2,   1,    19.660,    -1.310,     0.000,     0.000,     0.000,     0.000,   2,1,0
 50004,'LD',1,   3,   1,    11.000,    -0.230,     0.000,     0.000,     0.000,     0.000,   2,1,0
 50301,'LD',1,  11,   1,     3.500,    -0.730,     0.000,     0.000,     0.000,     0.000,   2,1,0
 50604,'LD',1,   9,   1,     5.930,    -0.010,     0.000,     0.000,     0.000,     0.000,   2,1,0
 50901,'LD',1,   4,   1,     4.840,    -0.220,     0.000,     0.000,     0.000,     0.000,   2,1,0
 51101,'I ',1,  11,   2,    13.970,     0.880,     0.000,     0.000,     0.000,     0.000,   5,0,0
 51101,'MI',0,  11,   2,     7.990,     0.510,     0.000,     0.000,     0.000,     0.000,   5,0,0
 51103,'I ',1,  11,   2,    21.960,     1.390,     0.000,     0.000,     0.000,     0.000,   5,0,0
...
0 / END OF LOAD DATA, BEGIN FIXED SHUNT DATA
  3934,'1 ',1,     0.000,     6.000
  3944,'1 ',1,     0.000,     6.000
  3954,'1 ',1,     0.000,     6.000
 13124,'1 ',1,     0.000,    10.000
 27361,'1 ',1,     0.000,     1.200
 33902,'1 ',1,     0.000,     6.000
 54630,'1 ',1,     0.000,   105.000
 54640,'1 ',1,     0.000,    41.000
0 / END OF FIXED SHUNT DATA, BEGIN GENERATOR DATA
 10271,'1 ',    19.950,     0.000,    15.000,    -7.000,1.00000,  1021,    34.000, 0.00000E+0, 2.20000E-1, 0.00000E+0, 0.00000E+0,1.00000,0,   15.0,    21.000,     5.000,  13,1.0000
 10272,'2 ',    20.900,     0.000,    15.000,    -7.000,1.00000,  1021,    34.000, 0.00000E+0, 2.20000E-1, 0.00000E+0, 0.00000E+0,1.00000,0,   15.0,    22.000,     5.000,  13,1.0000
 10273,'3 ',    18.050,     0.000,    15.000,    -7.000,1.00000,  1021,    34.000, 0.00000E+0, 2.20000E-1, 0.00000E+0, 0.00000E+0,1.00000,0,   15.0,    19.000,     5.000,  13,1.0000
 10274,'4 ',    22.800,     0.000,    15.000,    -7.000,1.00000,  1021,    34.000, 0.00000E+0, 2.20000E-1, 0.00000E+0, 0.00000E+0,1.00000,0,   15.0,    24.000,     5.000,  13,1.0000
 10275,'3 ',     7.125,     0.000,     0.000,     0.000,1.04000,     0,     8.350, 9.20000E-3, 2.00000E-1, 0.00000E+0, 0.00000E+0,1.00000,0,  100.0,     7.500,     0.000,  21,1.0000,    ,      ,    ,      ,    ,      ,3,-0.9800
 10276,'2 ',     0.627,     0.000,     0.000,     0.000,1.04000,     0,     0.850, 7.30000E-3, 2.00000E-1, 0.00000E+0, 0.00000E+0,1.00000,0,  100.0,     0.660,     0.000,  21,1.0000,    ,      ,    ,      ,    ,      ,3,-0.9800
 10401,'1 ',    18.050,     0.000,     0.000,     0.000,1.00000,     0,    20.000, 4.00000E-3, 8.33000E-1, 0.00000E+0, 0.00000E+0,1.00000,0,  100.0,    19.000,   -19.000,  14,1.0000,    ,      ,    ,      ,    ,      ,3,-0.9800
 10470,'1 ',   456.000,   -74.173,   270.000,  -170.000,1.00000,  1042,   500.000, 2.70000E-3, 1.80000E-1, 0.00000E+0, 0.00000E+0,1.00000,1,  270.0,   456.690,   222.000,   9,1.0000
 10471,'1 ',   151.050,     0.000,    40.000,   -30.000,1.00000,  1042,   167.000, 0.00000E+0, 8.33000E-1, 0.00000E+0, 0.00000E+0,1.00000,0,  100.0,   159.000,  -159.000,  14,1.0000,    ,      ,    ,      ,    ,      ,1, 1.0000
 10472,'11',    85.500,     0.000,    60.000,   -30.000,1.00000,  1042,   100.900, 0.00000E+0, 1.25000E-1, 0.00000E+0, 0.00000E+0,1.00000,0,   60.0,    90.000,    13.000,   9,1.0000
 10473,'12',    85.500,     0.000,    60.000,   -30.000,1.00000,  1042,   100.900, 0.00000E+0, 1.25000E-1, 0.00000E+0, 0.00000E+0,1.00000,0,   60.0,    90.000,    13.000,   9,1.0000
 10474,'14',    85.500,     0.000,    60.000,   -30.000,1.00000,  1042,   100.900, 0.00000E+0, 1.25000E-1, 0.00000E+0, 0.00000E+0,1.00000,0,   60.0,    90.000,    13.000,   9,1.0000
 10671,'2 ',     4.560,    -1.940,    -1.940,    -1.940,1.04000,     0,     4.800, 2.04000E-2, 1.66000E-1, 0.00000E+0, 0.00000E+0,1.00000,0,  100.0,     4.800,     0.000,  20,1.0000,    ,      ,    ,      ,    ,      ,3,-0.9800
 10672,'3 ',     4.750,    -2.000,    -2.000,    -2.000,1.04000,     0,     6.000, 2.04000E-2, 1.66000E-1, 0.00000E+0, 0.00000E+0,1.00000,0,  100.0,     5.000,     0.000,  20,1.0000,    ,      ,    ,      ,    ,      ,3,-0.9800
 10673,'1 ',     1.140,    -0.480,    -0.480,    -0.480,1.04000,     0,     1.200, 2.04000E-2, 1.66000E-1, 0.00000E+0, 0.00000E+0,1.00000,0,  100.0,     1.200,     0.000,  20,1.0000,    ,      ,    ,      ,    ,      ,3,-0.9800
 10674,'5 ',     4.370,     0.000,    -1.770,    -2.300,1.04000,     0,     4.600, 2.57000E-2, 1.66000E-1, 0.00000E+0, 0.00000E+0,1.00000,0,  100.0,     4.600,     0.000,  20,1.0000,    ,      ,    ,      ,    ,      ,3,-0.9800
 11204,'1 ',     0.950,     0.000,    -0.810,    -0.810,1.00000,     0,     1.600, 0.00000E+0, 2.00000E-1, 1.00000E-2, 6.00000E-2,1.00000,0,  100.0,     1.000,     0.000,  15,1.0000
 11271,'1 ',    23.940,     0.000,     0.000,     0.000,1.04000,     0,    28.000, 3.20000E-3, 2.00000E-1, 0.00000E+0, 0.00000E+0,1.00000,0,  100.0,    25.200,     0.000,  20,1.0000,    ,      ,    ,      ,    ,      ,3,-0.9800
 11303,'1 ',    10.450,     0.000,    10.000,    -8.000,1.00000,  1131,    12.000, 3.20000E-3, 8.33000E-1, 0.00000E+0, 1.00000E-1,1.00000,0,    6.0,    11.000,   -11.000,  14,1.0000,    ,      ,    ,      ,    ,      ,1, 1.0000
 11371,'1 ',    32.632,     0.000,    13.000,   -18.000,1.00000,  1131,    34.350, 7.10000E-3, 2.00000E-1, 0.00000E+0, 0.00000E+0,1.00000,0,   11.0,    34.350,     0.000,  17,1.0000,    ,      ,    ,      ,    ,      ,1, 1.0000
 11372,'1 ',    21.993,     0.000,     6.155,    -6.155,1.00000,  1131,    23.150, 3.20000E-3, 2.00000E-1, 0.00000E+0, 0.00000E+0,1.00000,0,    6.0,    23.150,     0.000,  17,1.0000,    ,      ,    ,      ,    ,      ,1, 1.0000
 12101,'XX',     0.000,     0.000,   100.000,  -100.000,1.00000,  1211,   100.000, 0.00000E+0, 8.33000E-1, 0.00000E+0, 0.00000E+0,1.00000,0,  100.0,     0.000,     0.000,  25,1.0000,    ,      ,    ,      ,    ,      ,1, 1.0000
 12371,'1 ',    29.925,     0.000,     7.000,    -7.000,1.00000,  1231,    32.000, 2.57000E-2, 8.33000E-1, 0.00000E+0, 0.00000E+0,1.00000,0,    7.0,    31.500,     0.000,  17,1.0000,    ,      ,    ,      ,    ,      ,1, 1.0000
 12372,'2 ',     9.975,     0.000,     3.000,    -3.000,1.00000,  1231,    10.500, 2.57000E-2, 8.33000E-1, 0.00000E+0, 0.00000E+0,1.00000,0,  100.0,    10.500,     0.000,  17,1.0000,    ,      ,    ,      ,    ,      ,1, 1.0000
 12571,'1 ',    18.478,     0.000,     0.000,     0.000,1.00000,  1251,    21.710, 9.20000E-3, 2.00000E-1, 0.00000E+0, 0.00000E+0,1.00000,0,  100.0,    19.450,     0.000,  17,1.0000,    ,      ,    ,      ,    ,      ,1, 1.0000
 12572,'1 ',    11.400,     0.000,     0.986,    -0.986,1.00000,  1251,    12.000, 2.52000E-2, 8.33000E-1, 0.00000E+0, 0.00000E+0,1.00000,0,  100.0,    12.000,     0.000,  17,1.0000,    ,      ,    ,      ,    ,      ,3,-0.9800
 12574,'1 ',    12.729,     0.000,    -1.360,    -1.360,1.00000,     0,    14.000, 3.20000E-3, 8.33000E-1, 0.00000E+0, 0.00000E+0,1.00000,0,  100.0,    13.399,     0.000,  17,1.0000,    ,      ,    ,      ,    ,      ,3,-0.9800
 12771,'1 ',     9.500,     0.000,     0.000,     0.000,1.00000,     0,    10.000, 8.80000E-3, 8.33000E-1, 0.00000E+0, 0.00000E+0,1.00000,0,  100.0,    10.000,     0.000,  23,1.0000,    ,      ,    ,      ,    ,      ,3,-0.9800
 12872,'DW',     7.980,     0.000,     0.000,    -2.761,1.00000,     0,     9.200, 2.57000E-2, 2.00000E-1, 0.00000E+0, 0.00000E+0,1.00000,0,  100.0,     8.400,     0.000,  20,1.0000,    ,      ,    ,      ,    ,      ,3,-0.9800
 12873,'1 ',    18.573,     0.000,     0.000,     0.000,1.00000,     0,    20.700, 2.57000E-2, 2.00000E-1, 0.00000E+0, 0.00000E+0,1.00000,0,  100.0,    19.550,     0.000,  20,1.0000,    ,      ,    ,      ,    ,      ,3,-0.9800
 12874,'1 ',     8.075,     0.000,     0.000,     0.000,1.00000,     0,     8.500, 2.10000E-3, 1.66000E-1, 0.00000E+0, 0.00000E+0,1.00000,0,  100.0,     8.500,     0.000,  20,1.0000,    ,      ,    ,      ,    ,      ,3,-0.9800
 13011,'1 ',     7.600,     0.000,     0.000,     0.000,1.00000,     0,     8.500, 2.00000E-2, 8.33000E-1, 0.00000E+0, 0.00000E+0,1.00000,0,  100.0,     8.000,     0.000,  23,1.0000,    ,      ,    ,      ,    ,      ,3,-0.9800
 13170,'1 ',    33.678,     0.000,    -3.570,    -3.570,1.00000,     0,    35.500, 2.57000E-2, 8.33000E-1, 0.00000E+0, 0.00000E+0,1.00000,0,  100.0,    35.450,     0.000,  19,1.0000,    ,      ,    ,      ,    ,      ,2, 0.9600
 13171,'1 ',    17.575,     0.000,    -1.010,    -1.010,1.00000,     0,    18.800, 9.00000E-3, 2.00000E-1, 0.00000E+0, 0.00000E+0,1.00000,0,  100.0,    18.500,     0.000,  20,1.0000,    ,      ,    ,      ,    ,      ,3,-0.9800
 13172,'1 ',     3.610,     0.000,    -1.030,    -1.030,1.00000,     0,     4.000, 3.20000E-3, 8.33000E-1, 0.00000E+0, 0.00000E+0,1.00000,0,  100.0,     3.800,     0.000,  19,1.0000,    ,      ,    ,      ,    ,      ,3,-0.9800
 13271,'1 ',     4.749,     0.000,     0.000,     0.000,1.04000,     0,     5.000, 0.00000E+0, 1.54000E-1, 0.00000E+0, 0.00000E+0,1.00000,0,  100.0,     4.999,     2.000,  15,1.0000,    ,      ,    ,      ,    ,      ,3,-0.9800
 13371,'1 ',    57.000,     0.000,    20.000,   -20.000,1.00000,  1331,    61.000, 8.80000E-3, 8.33000E-1, 0.00000E+0, 0.00000E+0,1.00000,0,   30.0,    60.000,     0.000,  23,1.0000,    ,      ,    ,      ,    ,      ,1, 1.0000
 13434,'10',     4.085,     0.000,     0.000,     0.000,1.00000,     0,     4.500, 0.00000E+0, 2.00000E-1, 0.00000E+0, 1.00000E-1,1.00000,0,  100.0,     4.300,     0.000,  13,1.0000,    ,      ,    ,      ,    ,      ,3,-0.9800
 13471,'1 ',     0.627,     0.000,    -0.220,    -0.220,1.00000,     0,     0.660, 2.04000E-2, 2.00000E-1, 0.00000E+0, 0.00000E+0,1.00000,0,  100.0,     0.660,     0.000,  22,1.0000,    ,      ,    ,      ,    ,      ,3,-0.9800
 13472,'DW',     2.422,     0.000,    -0.720,    -0.720,1.00000,     0,     2.700, 3.02000E-2, 8.33000E-1, 0.00000E+0, 0.00000E+0,1.00000,0,  100.0,     2.550,     0.000,  21,1.0000,    ,      ,    ,      ,    ,      ,3,-0.9800
 13473,'4 ',     9.491,     0.000,     0.000,     0.000,1.00000,     0,    15.100, 3.20000E-3, 2.00000E-1, 0.00000E+0, 0.00000E+0,1.00000,0,  100.0,     9.990,     0.000,  20,1.0000,    ,      ,    ,      ,    ,      ,3,-0.9800
 13474,'1 ',     5.700,     0.000,     0.000,     0.000,1.00000,     0,     6.900, 2.57000E-2, 8.33000E-1, 0.00000E+0, 0.00000E+0,1.00000,0,  100.0,     6.000,     0.000,  18,1.0000,    ,      ,    ,      ,    ,      ,3,-0.9800
 13475,'6 ',     7.267,     0.000,     0.000,     0.000,1.00000,  1701,     7.680, 3.20000E-3, 2.00000E-1, 0.00000E+0, 0.00000E+0,1.00000,0,  100.0,     7.650,     0.000,  21,1.0000,    ,      ,    ,      ,    ,      ,3,-0.9800
 13476,'3 ',    11.305,     0.000,    -3.260,    -3.260,1.00000,     0,    12.000, 2.57000E-2, 8.33000E-1, 0.00000E+0, 0.00000E+0,1.00000,0,  100.0,    11.900,     0.000,  21,1.0000,    ,      ,    ,      ,    ,      ,3,-0.9800
 13477,'2 ',     2.422,     0.000,    -0.720,    -0.720,1.00000,     0,     2.700, 3.02000E-2, 8.33000E-1, 0.00000E+0, 0.00000E+0,1.00000,0,  100.0,     2.550,     0.000,  21,1.0000,    ,      ,    ,      ,    ,      ,3,-0.9800
 13479,'9 ',     3.230,     0.000,     0.000,     0.000,1.00000,     0,     3.400, 7.30000E-3, 8.33000E-1, 0.00000E+0, 0.00000E+0,1.00000,0,  100.0,     3.400,     0.000,  20,1.0000,    ,      ,    ,      ,    ,      ,3,-0.9800
 13872,'1 ',     1.900,     0.000,     0.000,     0.000,1.00000,     0,     2.000, 1.00000E-4, 8.33000E-1, 0.00000E+0, 0.00000E+0,1.00000,0,  100.0,     2.000,     0.000,  21,1.0000,    ,      ,    ,      ,    ,      ,3,-0.9800
 14073,'3 ',     6.128,    -2.400,    -2.400,    -2.400,1.04000,     0,     7.611, 2.04000E-2, 1.66000E-1, 0.00000E+0, 0.00000E+0,1.00000,0,  100.0,     6.450,     0.000,  20,1.0000,    ,      ,    ,      ,    ,      ,3,-0.9800
 14304,'1 ',     7.125,     0.000,     1.730,    -1.730,1.05000,     0,     8.500, 0.00000E+0, 1.50000E-1, 0.00000E+0, 1.00000E-1,1.00000,0,  100.0,     7.500,     2.000,  15,1.0000,    ,      ,    ,      ,    ,      ,3,-0.9800
 14471,'1 ',     3.800,     0.000,     0.000,     0.000,1.04000,     0,     4.000, 3.20000E-3, 2.00000E-1, 0.00000E+0, 0.00000E+0,1.00000,0,  100.0,     4.000,     0.000,  21,1.0000,    ,      ,    ,      ,    ,      ,3,-0.9800
 14472,'1 ',     0.808,     0.000,     0.000,     0.000,1.00000,     0,     0.850, 2.10000E-3, 2.00000E-1, 0.00000E+0, 0.00000E+0,1.00000,0,  100.0,     0.850,     0.000,  21,1.0000,    ,      ,    ,      ,    ,      ,3,-0.9800
 14474,'1 ',     8.312,     0.000,     0.000,    -2.876,1.00000,     0,    10.000, 9.00000E-3, 2.00000E-1, 0.00000E+0, 0.00000E+0,1.00000,0,  100.0,     8.750,     0.000,  21,1.0000,    ,      ,    ,      ,    ,      ,3,-0.9800
 14871,'1 ',     1.615,     0.000,     0.000,     0.000,1.04000,     0,     4.600, 2.57000E-2, 2.00000E-1, 0.00000E+0, 0.00000E+0,1.00000,0,  100.0,     1.700,     0.000,  21,1.0000,    ,      ,    ,      ,    ,      ,3,-0.9800
 14971,'1 ',    80.750,     0.000,    27.000,   -27.000,1.00000,     0,    90.000, 2.00000E-2, 8.33000E-1, 0.00000E+0, 0.00000E+0,1.00000,0,  100.0,    85.000,     0.000,  23,1.0000,    ,      ,    ,      ,    ,      ,1, 1.0000
 15112,'1 ',    11.400,     0.000,     0.000,     0.000,1.00000,  1511,    13.360, 3.20000E-3, 8.33000E-1, 0.00000E+0, 6.00000E-2,1.00000,0,  100.0,    12.000,     0.000,  19,1.0000,    ,      ,    ,      ,    ,      ,3,-0.9800
 15171,'TW',    43.700,     0.000,    15.119,   -15.119,1.00000,  1511,    46.000, 9.00000E-3, 8.33000E-1, 0.00000E+0, 0.00000E+0,1.00000,0,   15.0,    46.000,     0.000,  17,1.0000,    ,      ,    ,      ,    ,      ,1, 1.0000
 15172,'DW',    11.922,     0.000,     3.287,    -3.287,1.00000,     0,    12.800, 9.00000E-3, 8.33000E-1, 0.00000E+0, 0.00000E+0,1.00000,0,  100.0,    12.550,     0.000,  19,1.0000,    ,      ,    ,      ,    ,      ,3,-0.9800
 15174,'DW',    19.000,     0.000,     6.574,    -6.574,1.00000,     0,    20.000, 9.00000E-3, 8.33000E-1, 0.00000E+0, 0.00000E+0,1.00000,0,  100.0,    20.000,     0.000,  19,1.0000,    ,      ,    ,      ,    ,      ,3,-0.9800
 15175,'1 ',     9.499,     0.000,     0.000,     0.000,1.00000,  1511,    11.133, 3.20000E-3, 8.33000E-1, 0.00000E+0, 0.00000E+0,1.00000,0,  100.0,     9.999,     0.000,  21,1.0000,    ,      ,    ,      ,    ,      ,1,-0.9800
 15271,'1 ',    53.580,     0.000,    19.000,   -19.000,1.00000,  1521,    56.400, 3.20000E-3, 8.33000E-1, 0.00000E+0, 0.00000E+0,1.00000,0,   19.0,    56.400,     0.000,  17,1.0000,    ,      ,    ,      ,    ,      ,1, 1.0000
 15472,'1 ',     8.550,     0.000,    -0.810,    -0.810,1.00000,     0,     9.000, 2.52000E-2, 8.33000E-1, 0.00000E+0, 0.00000E+0,1.00000,0,  100.0,     9.000,    -9.000,  14,1.0000,    ,      ,    ,      ,    ,      ,3,-0.9800
 15473,'1 ',     3.800,     0.000,     0.000,     0.000,1.00000,     0,     4.000, 8.80000E-3, 8.33000E-1, 0.00000E+0, 0.00000E+0,1.00000,0,  100.0,     4.000,     0.000,  23,1.0000,    ,      ,    ,      ,    ,      ,3,-0.9800
 15571,'1 ',     5.130,     0.000,    -0.610,    -0.610,1.00000,     0,     5.400, 7.30000E-3, 8.33000E-1, 0.00000E+0, 0.00000E+0,1.00000,0,  100.0,     5.400,     0.000,  17,1.0000,    ,      ,    ,      ,    ,      ,3,-0.9800
 15571,'2 ',    11.400,     0.000,    -0.610,    -0.610,1.00000,     0,    12.500, 7.30000E-3, 8.33000E-1, 0.00000E+0, 0.00000E+0,1.00000,0,  100.0,    12.000,     0.000,  17,1.0000,    ,      ,    ,      ,    ,      ,3,-0.9800
 15571,'DW',     5.653,     0.000,    -0.610,    -0.610,1.00000,     0,     7.000, 7.30000E-3, 8.33000E-1, 0.00000E+0, 0.00000E+0,1.00000,0,  100.0,     5.950,     0.000,  17,1.0000,    ,      ,    ,      ,    ,      ,3,-0.9800
 15572,'1 ',    62.415,     0.000,    20.000,   -22.400,1.00000,  1551,    65.700, 2.57000E-2, 2.00000E-1, 0.00000E+0, 0.00000E+0,1.00000,0,   15.0,    65.700,     0.000,  17,1.0000,    ,      ,    ,      ,    ,      ,1, 1.0000
 15573,'1 ',    19.000,     0.000,    -2.020,    -2.020,1.00000,     0,    23.000, 2.57000E-2, 8.33000E-1, 0.00000E+0, 0.00000E+0,1.00000,0,  100.0,    20.000,     0.000,  19,1.0000,    ,      ,    ,      ,    ,      ,1, 1.0000
 15574,'1 ',    54.150,     0.000,    18.735,   -18.735,1.00000,  1551,    59.375, 9.00000E-3, 2.00000E-1, 0.00000E+0, 0.00000E+0,1.00000,0,   18.0,    57.000,     0.000,  17,1.0000,    ,      ,    ,      ,    ,      ,1, 1.0000
 15771,'1 ',     1.881,     0.000,    -0.550,    -0.550,1.00000,     0,     1.980, 2.04000E-2, 2.00000E-1, 0.00000E+0, 0.00000E+0,1.00000,0,  100.0,     1.980,     0.000,  20,1.0000,    ,      ,    ,      ,    ,      ,3,-0.9800
 15772,'1 ',     2.850,     0.000,    -0.820,    -0.820,1.00000,     0,     3.000, 2.04000E-2, 2.00000E-1, 0.00000E+0, 0.00000E+0,1.00000,0,  100.0,     3.000,     0.000,  20,1.0000,    ,      ,    ,      ,    ,      ,3,-0.9800
 16371,'1 ',     3.230,     0.000,     0.000,     0.000,1.00000,     0,     3.400, 7.30000E-3, 2.00000E-1, 0.00000E+0, 0.00000E+0,1.00000,0,  100.0,     3.400,     0.000,  19,1.0000,    ,      ,    ,      ,    ,      ,3,-0.9800
 16372,'2 ',     3.230,     0.000,     0.000,     0.000,1.00000,     0,     3.400, 7.30000E-3, 2.00000E-1, 0.00000E+0, 0.00000E+0,1.00000,0,  100.0,     3.400,     0.000,  19,1.0000,    ,      ,    ,      ,    ,      ,3,-0.9800
 16373,'3 ',     6.460,     0.000,     0.000,     0.000,1.00000,     0,     6.800, 7.30000E-3, 2.00000E-1, 0.00000E+0, 0.00000E+0,1.00000,0,  100.0,     6.800,     0.000,  19,1.0000,    ,      ,    ,      ,    ,      ,2, 0.9800
 16374,'4 ',     7.267,     0.000,     0.000,     0.000,1.00000,     0,     7.660, 2.10000E-3, 1.66000E-1, 0.00000E+0, 0.00000E+0,1.00000,0,  100.0,     7.650,     0.000,  19,1.0000,    ,      ,    ,      ,    ,      ,1, 1.0000
 16375,'1 ',     3.762,     0.000,     0.000,     0.000,1.00000,     0,     4.250, 2.10000E-3, 1.66000E-1, 0.00000E+0, 0.00000E+0,1.00000,0,  100.0,     3.960,     0.000,  19,1.0000,    ,      ,    ,      ,    ,      ,3,-0.9800
 16376,'6 ',     4.702,     0.000,     0.000,     0.000,1.00000,     0,     5.100, 2.10000E-3, 2.00000E-1, 0.00000E+0, 0.00000E+0,1.00000,0,  100.0,     4.950,     0.000,  19,1.0000,    ,      ,    ,      ,    ,      ,3,-0.9800
 16377,'1 ',     8.550,     0.000,     0.000,     0.000,1.00000,     0,     9.200, 2.57000E-2, 8.33000E-1, 0.00000E+0, 0.00000E+0,1.00000,0,  100.0,     9.000,     0.000,  19,1.0000,    ,      ,    ,      ,    ,      ,2, 0.9800
 16378,'1 ',     1.518,     0.000,     0.000,     0.000,1.00000,     0,     1.700, 2.10000E-3, 2.00000E-1, 0.00000E+0, 0.00000E+0,1.00000,0,  100.0,     1.598,     0.000,  19,1.0000,    ,      ,    ,      ,    ,      ,3,-0.9800
 16379,'2 ',     0.275,     0.000,     0.000,     0.000,1.00000,     0,     0.323, 3.20000E-3, 1.66000E-1, 0.00000E+0, 0.00000E+0,1.00000,0,  100.0,     0.290,     0.000,  19,1.0000,    ,      ,    ,      ,    ,      ,3,-0.9800
 16382,'1 ',     9.714,     0.000,     0.000,     0.000,1.00000,     0,    11.500, 2.57000E-2, 8.33000E-1, 0.00000E+0, 0.00000E+0,1.00000,0,  100.0,    10.225,     0.000,  19,1.0000,    ,      ,    ,      ,    ,      ,3,-0.9800
 16392,'1 ',    11.381,     0.000,     0.000,     0.000,1.00000,     0,    13.800, 2.57000E-2, 8.33000E-1, 0.00000E+0, 0.00000E+0,1.00000,0,  100.0,    11.980,     0.000,  19,1.0000,    ,      ,    ,      ,    ,      ,3,-0.9800
 16571,'1 ',    35.910,     0.000,    13.000,   -13.000,1.00000,  1651,    40.000, 2.57000E-2, 8.33000E-1, 0.00000E+0, 0.00000E+0,1.00000,0,  100.0,    37.800,     0.000,  17,1.0000,    ,      ,    ,      ,    ,      ,1, 1.0000
 16670,'1 ',     4.418,     0.000,     0.000,    -3.073,1.00000,     0,     4.700, 3.02000E-2, 8.33000E-1, 0.00000E+0, 0.00000E+0,1.00000,0,  100.0,     4.650,     0.000,  21,1.0000,    ,      ,    ,      ,    ,      ,3,-0.9800
 16671,'1 ',     3.230,    -0.800,     0.000,     0.000,1.04000,     0,     3.400, 7.30000E-3, 2.00000E-1, 0.00000E+0, 0.00000E+0,1.00000,0,  100.0,     3.400,     0.000,  21,1.0000,    ,      ,    ,      ,    ,      ,3,-0.9800
 16672,'2 ',     1.510,     0.000,    -0.560,    -0.560,1.04000,     0,     1.700, 7.30000E-3, 8.33000E-1, 0.00000E+0, 0.00000E+0,1.00000,0,  100.0,     1.590,     0.000,  21,1.0000,    ,      ,    ,      ,    ,      ,3,-0.9800
 16674,'1 ',    17.765,     0.000,     0.000,     0.000,1.04000,     0,    18.700, 7.30000E-3, 2.00000E-1, 0.00000E+0, 0.00000E+0,1.00000,0,  100.0,    18.700,     0.000,  20,1.0000,    ,      ,    ,      ,    ,      ,3,-0.9800
 16675,'2 ',     8.075,     0.000,    -2.650,    -2.650,1.04000,     0,     8.700, 2.69000E-2, 8.33000E-1, 0.00000E+0, 0.00000E+0,1.00000,0,  100.0,     8.500,     0.000,  20,1.0000,    ,      ,    ,      ,    ,      ,3,-0.9800
 16676,'1 ',     6.460,     0.000,     0.000,     0.000,1.00000,     0,     7.200, 3.02000E-2, 8.33000E-1, 0.00000E+0, 0.00000E+0,1.00000,0,  100.0,     6.800,     0.000,  21,1.0000,    ,      ,    ,      ,    ,      ,3,-0.9800
...